examples/psse/case14_v29.raw
0,   100.00, 29                  / PSS/E-29 RAW, IEEE 14-bus
IEEE 14 BUS TEST CASE
V29 LAYOUT: SHUNTS ON THE BUS RECORD, TRANSFORMERS IN BRANCH DATA
     1,'BUS-1      ', 132.000,3,     0.000,     0.000,    1,    1,1.00000,   0.0000,    1
     2,'BUS-2      ', 132.000,2,     0.000,     0.000,    1,    1,1.00000,   0.0000,    1
     3,'BUS-3      ', 132.000,2,     0.000,     0.000,    1,    1,1.00000,   0.0000,    1
     4,'BUS-4      ', 132.000,1,     0.000,     0.000,    1,    1,1.00000,   0.0000,    1
     5,'BUS-5      ', 132.000,1,     0.000,     0.000,    1,    1,1.00000,   0.0000,    1
     6,'BUS-6      ',  33.000,2,     0.000,     0.000,    1,    1,1.00000,   0.0000,    1
     7,'BUS-7      ',  33.000,1,     0.000,     0.000,    1,    1,1.00000,   0.0000,    1
     8,'BUS-8      ',  11.000,2,     0.000,     0.000,    1,    1,1.00000,   0.0000,    1
     9,'BUS-9      ',  33.000,1,     0.000,    19.000,    1,    1,1.00000,   0.0000,    1
    10,'BUS-10     ',  33.000,1,     0.000,     0.000,    1,    1,1.00000,   0.0000,    1
    11,'BUS-11     ',  33.000,1,     0.000,     0.000,    1,    1,1.00000,   0.0000,    1
    12,'BUS-12     ',  33.000,1,     0.000,     0.000,    1,    1,1.00000,   0.0000,    1
    13,'BUS-13     ',  33.000,1,     0.000,     0.000,    1,    1,1.00000,   0.0000,    1
    14,'BUS-14     ',  33.000,1,     0.000,     0.000,    1,    1,1.00000,   0.0000,    1
0 / END OF BUS DATA, BEGIN LOAD DATA
     2,'1 ',1,    1,    1,    21.700,    12.700,     0.000,     0.000,     0.000,     0.000,    1
     3,'1 ',1,    1,    1,    94.200,    19.000,     0.000,     0.000,     0.000,     0.000,    1
     4,'1 ',1,    1,    1,    47.800,    -3.900,     0.000,     0.000,     0.000,     0.000,    1
     5,'1 ',1,    1,    1,     7.600,     1.600,     0.000,     0.000,     0.000,     0.000,    1
     6,'1 ',1,    1,    1,    11.200,     7.500,     0.000,     0.000,     0.000,     0.000,    1
     9,'1 ',1,    1,    1,    29.500,    16.600,     0.000,     0.000,     0.000,     0.000,    1
    10,'1 ',1,    1,    1,     9.000,     5.800,     0.000,     0.000,     0.000,     0.000,    1
    11,'1 ',1,    1,    1,     3.500,     1.800,     0.000,     0.000,     0.000,     0.000,    1
    12,'1 ',1,    1,    1,     6.100,     1.600,     0.000,     0.000,     0.000,     0.000,    1
    13,'1 ',1,    1,    1,    13.500,     5.800,     0.000,     0.000,     0.000,     0.000,    1
    14,'1 ',1,    1,    1,    14.900,     5.000,     0.000,     0.000,     0.000,     0.000,    1
0 / END OF LOAD DATA, BEGIN GENERATOR DATA
     1,'1 ',     0.000,     0.000,    10.000,     0.000,1.00000,     1,  100.00,0.00000,1.00000,0.00000,0.00000,1.00000,1,100.0,   340.000,     0.000,   1,1.0000
     2,'1 ',     0.000,     0.000,    30.000,   -30.000,1.00000,     2,  100.00,0.00000,1.00000,0.00000,0.00000,1.00000,1,100.0,    59.000,     0.000,   1,1.0000
     3,'1 ',     0.000,     0.000,    40.000,     0.000,1.00000,     3,  100.00,0.00000,1.00000,0.00000,0.00000,1.00000,1,100.0,     0.000,     0.000,   1,1.0000
     6,'1 ',     0.000,     0.000,    24.000,    -6.000,1.00000,     6,  100.00,0.00000,1.00000,0.00000,0.00000,1.00000,1,100.0,     0.000,     0.000,   1,1.0000
     8,'1 ',     0.000,     0.000,    24.000,    -6.000,1.00000,     8,  100.00,0.00000,1.00000,0.00000,0.00000,1.00000,1,100.0,     0.000,     0.000,   1,1.0000
0 / END OF GENERATOR DATA, BEGIN BRANCH DATA
     1,     2,'1 ',   0.019380,   0.059170,   0.052800,  472.00,  472.00,  472.00, 0.00000,   0.000,  0.00000,  0.00000,  0.00000,  0.00000,1,   0.00
     1,     5,'1 ',   0.054030,   0.223040,   0.049200,  128.00,  128.00,  128.00, 0.00000,   0.000,  0.00000,  0.00000,  0.00000,  0.00000,1,   0.00
     2,     3,'1 ',   0.046990,   0.197970,   0.043800,  145.00,  145.00,  145.00, 0.00000,   0.000,  0.00000,  0.00000,  0.00000,  0.00000,1,   0.00
     2,     4,'1 ',   0.058110,   0.176320,   0.034000,  158.00,  158.00,  158.00, 0.00000,   0.000,  0.00000,  0.00000,  0.00000,  0.00000,1,   0.00
     2,     5,'1 ',   0.056950,   0.173880,   0.034600,  161.00,  161.00,  161.00, 0.00000,   0.000,  0.00000,  0.00000,  0.00000,  0.00000,1,   0.00
     3,     4,'1 ',   0.067010,   0.171030,   0.012800,  160.00,  160.00,  160.00, 0.00000,   0.000,  0.00000,  0.00000,  0.00000,  0.00000,1,   0.00
     4,     5,'1 ',   0.013350,   0.042110,   0.000000,  664.00,  664.00,  664.00, 0.00000,   0.000,  0.00000,  0.00000,  0.00000,  0.00000,1,   0.00
     6,    11,'1 ',   0.094980,   0.198900,   0.000000,  134.00,  134.00,  134.00, 0.00000,   0.000,  0.00000,  0.00000,  0.00000,  0.00000,1,   0.00
     6,    12,'1 ',   0.122910,   0.255810,   0.000000,  104.00,  104.00,  104.00, 0.00000,   0.000,  0.00000,  0.00000,  0.00000,  0.00000,1,   0.00
     6,    13,'1 ',   0.066150,   0.130270,   0.000000,  201.00,  201.00,  201.00, 0.00000,   0.000,  0.00000,  0.00000,  0.00000,  0.00000,1,   0.00
     7,     8,'1 ',   0.000000,   0.176150,   0.000000,  167.00,  167.00,  167.00, 0.00000,   0.000,  0.00000,  0.00000,  0.00000,  0.00000,1,   0.00
     7,     9,'1 ',   0.000000,   0.110010,   0.000000,  267.00,  267.00,  267.00, 0.00000,   0.000,  0.00000,  0.00000,  0.00000,  0.00000,1,   0.00
     9,    10,'1 ',   0.031810,   0.084500,   0.000000,  325.00,  325.00,  325.00, 0.00000,   0.000,  0.00000,  0.00000,  0.00000,  0.00000,1,   0.00
     9,    14,'1 ',   0.127110,   0.270380,   0.000000,   99.00,   99.00,   99.00, 0.00000,   0.000,  0.00000,  0.00000,  0.00000,  0.00000,1,   0.00
    10,    11,'1 ',   0.082050,   0.192070,   0.000000,  141.00,  141.00,  141.00, 0.00000,   0.000,  0.00000,  0.00000,  0.00000,  0.00000,1,   0.00
    12,    13,'1 ',   0.220920,   0.199880,   0.000000,   99.00,   99.00,   99.00, 0.00000,   0.000,  0.00000,  0.00000,  0.00000,  0.00000,1,   0.00
    13,    14,'1 ',   0.170930,   0.348020,   0.000000,   76.00,   76.00,   76.00, 0.00000,   0.000,  0.00000,  0.00000,  0.00000,  0.00000,1,   0.00
     4,     7,'1 ',   0.000000,   0.209120,   0.000000,  141.00,  141.00,  141.00, 0.97800,   0.000,  0.00000,  0.00000,  0.00000,  0.00000,1,   0.00
     4,     9,'1 ',   0.000000,   0.556180,   0.000000,   53.00,   53.00,   53.00, 0.96900,   0.000,  0.00000,  0.00000,  0.00000,  0.00000,1,   0.00
     5,     6,'1 ',   0.000000,   0.252020,   0.000000,  117.00,  117.00,  117.00, 0.93200,   0.000,  0.00000,  0.00000,  0.00000,  0.00000,1,   0.00
0 / END OF BRANCH DATA, BEGIN TRANSFORMER ADJUSTMENT DATA
0 / END OF TRANSFORMER ADJUSTMENT DATA, BEGIN AREA DATA
0 / END OF AREA DATA, BEGIN TWO-TERMINAL DC DATA
0 / END OF TWO-TERMINAL DC DATA, BEGIN SWITCHED SHUNT DATA
0 / END OF SWITCHED SHUNT DATA, BEGIN IMPEDANCE CORRECTION DATA
0 / END OF IMPEDANCE CORRECTION DATA, BEGIN MULTI-TERMINAL DC DATA
0 / END OF MULTI-TERMINAL DC DATA, BEGIN MULTI-SECTION LINE DATA
0 / END OF MULTI-SECTION LINE DATA, BEGIN ZONE DATA
0 / END OF ZONE DATA, BEGIN INTER-AREA TRANSFER DATA
0 / END OF INTER-AREA TRANSFER DATA, BEGIN OWNER DATA
0 / END OF OWNER DATA, BEGIN FACTS DEVICE DATA
0 / END OF FACTS DEVICE DATA
Q
